DSS_Simulator/ieee650v2_Renamed_withpv/ieee650_Power_seq_kVA.txt

SYMMETRICAL COMPONENT POWERS BY CIRCUIT ELEMENT (first 3 phases)                                     Excess Power

Element                     Term    P1(kW)   Q1(kvar)       P2         Q2      P0      Q0       P_Norm      Q_Norm     P_Emerg    Q_Emerg

"Vsource.SOURCE"             1    -9736.0     -861.3        0.0        0.0     0.0    -0.0
"Vsource.SOURCE"             2        0.0        0.0        0.0        0.0     0.0     0.0
"Line.LN5815900-1"           1     9690.6      270.3        0.5       -0.3     0.3    -0.5     9689.1      269.4     9252.0      257.2
"Line.LN5815900-1"           2    -9689.0     -266.3       -0.5        0.3    -0.2     0.5
"Line.LN5742828-1"           1     9689.0      266.3        0.5       -0.3     0.2    -0.5     9687.5      265.5     9250.4      253.5
"Line.LN5742828-1"           2    -9686.8     -261.3       -0.4        0.3    -0.2     0.5
"Line.LN5742828-2"           1     9682.7      260.2        0.5       -0.3     0.3    -0.5     9681.2      259.3     9244.4      247.6
"Line.LN5742828-2"           2    -9676.7     -246.3       -0.4        0.3    -0.2     0.5
"Line.LN5473414-1"           1     9676.7      246.3        0.4       -0.3     0.2    -0.5     9675.2      245.4     9238.7      234.4
"Line.LN5473414-1"           2    -9667.6     -225.0       -0.4        0.4    -0.2     0.5
"Line.LN5714974-1"           1     9667.6      225.0        0.4       -0.4     0.2    -0.5     9666.0      224.0     9229.9      213.9
"Line.LN5714974-1"           2    -9657.2     -200.4       -0.4        0.4    -0.2     0.5
"Line.LN5896798-1"           1     9657.2      200.4        0.4       -0.4     0.2    -0.5     9655.5      199.5     9219.9      190.5
"Line.LN5896798-1"           2    -9653.4     -191.6       -0.3        0.4    -0.2     0.6
"Line.LN5775442-1"           1     9653.4      191.6        0.3       -0.4     0.2    -0.6     9651.7      190.6     9216.3      182.0
"Line.LN5775442-1"           2    -9644.4     -170.5       -0.3        0.4    -0.1     0.6
"Line.CAP_1A"                1        0.0        0.0        0.0        0.0     0.0     0.0      309.4        0.0        0.0        0.0
"Line.CAP_1A"                2        0.0        0.0        0.0        0.0     0.0     0.0
"Line.LN5513564-2"           1     9642.1      169.5        0.3       -0.4     0.1    -0.6     9640.3      168.5     9205.1      160.8
"Line.LN5513564-2"           2    -9638.2     -160.5       -0.3        0.4    -0.1     0.6
"Line.LN5513564-1"           1     9637.0      819.3        0.9       -0.1     0.7     0.3     9636.4      819.3     9203.5      782.5
"Line.LN5513564-1"           2    -9635.2     -815.0       -0.9        0.1    -0.7    -0.2
"Line.XJ171_48332_SW"        1     9635.2      815.0        0.9       -0.1     0.7     0.2      936.7       79.2        0.0        0.0
"Line.XJ171_48332_SW"        2    -9634.6     -814.5       -0.9        0.1    -0.7    -0.2
"Line.LN6321409-1"           1     9634.6      814.5        0.9       -0.1     0.7     0.2     9634.0      814.4     9201.2      777.8
"Line.LN6321409-1"           2    -9629.8     -803.3       -0.9        0.2    -0.7    -0.2
"Line.LN5654466-1"           1     9369.8      734.4        1.2       -0.6     1.4    -0.1     9370.3      733.4     8949.3      700.5
"Line.LN5654466-1"           2    -9363.7     -719.9       -1.1        0.7    -1.4     0.3
"Line.LN6291242-1"           1     9363.7      719.9        1.1       -0.7     1.4    -0.3     9364.0      718.8     8943.4      686.5
"Line.LN6291242-1"           2    -9358.3     -707.2       -1.0        0.8    -1.3     0.4
"Line.LN5654472-1"           1     9318.7      696.5        1.0       -0.8     1.3    -0.3     9318.8      695.2     8895.0      663.6
"Line.LN5654472-1"           2    -9314.2     -686.0       -0.9        0.9    -1.3     0.4
"Line.LN5594242-1"           1     9314.2      686.0        0.9       -0.9     1.3    -0.4     9314.3      684.6     8890.7      653.4
"Line.LN5594242-1"           2    -9309.5     -674.8       -0.9        1.0    -1.2     0.6
"Line.LN6351519-1"           1     9303.3      673.2        0.9       -1.0     1.2    -0.6     9303.3      671.5     8880.2      641.0
"Line.LN6351519-1"           2    -9294.7     -652.9       -0.8        1.1    -1.1     0.8
"Line.LN6261021-1"           1     9294.7      652.9        0.8       -1.1     1.1    -0.8     9294.5      650.9     8871.8      621.3
"Line.LN6261021-1"           2    -9284.8     -629.4       -0.6        1.3    -1.0     1.1
"Line.LN5473440-1"           1     9279.4      627.9        0.6       -1.3     1.0    -1.1     9279.0      625.5     8856.3      597.0
"Line.LN5473440-1"           2    -9272.8     -612.2       -0.6        1.4    -1.0     1.3
"Line.LN5866268-1"           1     9263.7      609.7        0.5       -1.4     1.0    -1.2     9263.1      607.0     8840.0      579.3
"Line.LN5866268-1"           2    -9258.4     -597.0       -0.5        1.4    -0.9     1.4
"Line.LN6048634-1"           1     9258.4      597.0        0.5       -1.4     0.9    -1.4     9257.7      594.1     8834.8      567.0
"Line.LN6048634-1"           2    -9255.0     -589.1       -0.4        1.5    -0.9     1.5
"Line.LN6504019-5"           1     9255.0      589.1        0.4       -1.5     0.9    -1.5     9254.2      586.0     8831.5      559.2
"Line.LN6504019-5"           2    -9251.0     -579.6       -0.4        1.6    -0.8     1.6
"Line.LN6504020-2"           1     9239.3      469.2        0.5       -1.5     0.7    -1.5     9238.4      466.0     8818.5      444.9
"Line.LN6504020-2"           2    -9218.8     -420.8       -0.3        1.9    -0.4     2.0
"Line.LN6504018-1"           1     9218.8      420.8        0.3       -1.9     0.4    -2.0     9217.5      416.9     8798.5      397.9
"Line.LN6504018-1"           2    -9194.4     -363.0       -0.0        2.3    -0.2     2.6
"Line.LN5957526-1"           1     9151.2      352.0       -0.0       -2.4     0.1    -2.9     9149.2      346.6     8733.4      330.9
"Line.LN5957526-1"           2    -9148.0     -344.3        0.1        2.5    -0.1     3.0
"Line.LN5715052-1"           1     9129.8      339.4       -0.1       -2.4     0.2    -2.9     9127.8      334.0     8710.6      318.7
"Line.LN5715052-1"           2    -9121.6     -319.9        0.2        2.6    -0.1     3.2
"Line.LN5866308-1"           1     9115.7      318.3       -0.2       -2.6     0.1    -3.1     9113.5      312.5     8696.9      298.3
"Line.LN5866308-1"           2    -9112.4     -310.6        0.2        2.6    -0.0     3.2
"Line.LN6412354-1"           1     9056.3      295.5       -0.4       -2.4     0.4    -3.1     9054.3      289.9     8633.0      276.4
"Line.LN6412354-1"           2    -9055.6     -293.8        0.4        2.4    -0.4     3.2
"Line.LN6412355-1"           1     9055.6      293.8       -0.4       -2.4     0.4    -3.2     9053.5      288.2     8632.3      274.8
"Line.LN6412355-1"           2    -9050.4     -281.4        0.4        2.5    -0.4     3.3
"Line.LN5745355-1"           1     9045.0      280.0       -0.4       -2.5     0.4    -3.3     9042.8      274.1     8621.3      261.4
"Line.LN5745355-1"           2    -9042.3     -273.7        0.5        2.5    -0.4     3.4
"Line.LN5896834-1"           1     9033.2      271.2       -0.5       -2.5     0.4    -3.4     9031.1      265.3     8608.9      252.9
"Line.LN5896834-1"           2    -9025.8     -253.6        0.6        2.6    -0.4     3.6
"Line.LN6023352-1"           1     9020.4      252.1       -0.6       -2.6     0.4    -3.6     9018.1      245.9     8596.0      234.4
"Line.LN6023352-1"           2    -9016.3     -242.5        0.6        2.6    -0.4     3.7
"Line.L9407_48332_SW"        1     9016.3      242.5       -0.6       -2.6     0.4    -3.7      537.2       14.1        0.0        0.0
"Line.L9407_48332_SW"        2    -9015.8     -242.0        0.6        2.6    -0.4     3.7
"Line.LN6326450-1"           1     9015.8      242.0       -0.6       -2.6     0.4    -3.7     9013.4      235.6     8591.6      224.6
"Line.LN6326450-1"           2    -9015.0     -240.1        0.6        2.6    -0.4     3.7
"Line.LN5992960-1"           1     9015.0      240.1       -0.6       -2.6     0.4    -3.7     9012.6      233.7     8590.8      222.8
"Line.LN5992960-1"           2    -9012.4     -233.9        0.7        2.7    -0.3     3.8
"Line.LN5508630-1"           1     9012.4      233.9       -0.7       -2.7     0.3    -3.8     9009.9      227.4     8588.3      216.8
"Line.LN5508630-1"           2    -9012.0     -233.0        0.7        2.7    -0.3     3.8
"Line.LN5805762-1"           1     9007.9      231.9       -0.7       -2.7     0.3    -3.8     9005.4      225.4     8584.0      214.8
"Line.LN5805762-1"           2    -9002.7     -219.6        0.7        2.8    -0.3     4.0
"Line.LN6018336-1"           1     8999.1      218.6       -0.8       -2.8     0.3    -4.0     8996.5      211.9     8575.5      201.9
"Line.LN6018336-1"           2    -8995.9     -211.1        0.8        2.8    -0.3     4.0
"Line.LN5563942-4"           1     8969.2      204.3       -0.9       -2.9     0.2    -4.3     8966.4      197.0     8546.8      187.8
"Line.LN5563942-4"           2    -8966.8     -198.6        0.9        3.0    -0.1     4.3
"Line.2002200004868472_SW"   1     8966.8      198.6       -0.9       -3.0     0.1    -4.3      534.3       11.4        0.0        0.0
"Line.2002200004868472_SW"   2    -8966.4     -198.1        0.9        3.0    -0.1     4.3
"Line.CAP_2A"                1        0.0        0.0        0.0        0.0     0.0     0.0      180.2        6.8        0.0        0.0
"Line.CAP_2A"                2        0.0        0.0        0.0        0.0     0.0     0.0
"Line.LN5563942-5"           1     8965.9      197.7       -0.9       -3.0     0.1    -4.3     8963.0      190.3     8543.5      181.4
"Line.LN5563942-5"           2    -8965.5     -196.7        0.9        3.0    -0.1     4.4
"Line.LN5563942-3"           1     8965.5     1145.3       -0.9       -2.9     0.1    -4.3     8962.6     1137.8     8547.8     1085.2
"Line.LN5563942-3"           2    -8962.4    -1138.0        0.9        3.0    -0.1     4.4
"Line.LN5896833-1"           1     8962.4     1138.0       -0.9       -3.0     0.1    -4.4     8959.4     1130.4     8544.8     1078.1
"Line.LN5896833-1"           2    -8954.8    -1120.2        1.0        3.1     0.0     4.6
"Line.LN5805761-1"           1     8940.0     1116.1       -0.9       -3.1    -0.1    -4.5     8936.9     1108.3     8521.5     1056.8
"Line.LN5805761-1"           2    -8936.0    -1106.7        1.0        3.2     0.1     4.6
"Line.LN5799561-1"           1     2529.3     -123.4        0.5        1.8     2.6     2.5     2530.6     -119.1     2178.4     -102.5
"Line.LN5799561-1"           2    -2528.6      125.0       -0.5       -1.8    -2.6    -2.3
"Line.LN5799561-2"           1     2523.2     -126.4        0.5        1.8     2.6     2.3     2524.5     -122.2     2173.1     -105.2
"Line.LN5799561-2"           2    -2522.6      127.7       -0.5       -1.8    -2.6    -2.2
"Line.A8611_48332_SW"        1     2522.6     -127.7        0.5        1.8     2.6     2.2        0.0        0.0        0.0        0.0
"Line.A8611_48332_SW"        2    -2522.5      127.7       -0.5       -1.8    -2.6    -2.2
"Line.LN5594236-1"           1     2522.5     -127.7        0.5        1.8     2.6     2.2     2523.8     -123.6     2172.6     -106.4
"Line.LN5594236-1"           2    -2522.1      128.6       -0.5       -1.8    -2.6    -2.2
"Line.LN5503575-1"           1     2506.7     -132.5        0.4        1.7     2.5     2.0     2507.9     -128.7     2153.6     -110.5
"Line.LN5503575-1"           2    -2506.3      133.5       -0.4       -1.7    -2.5    -2.0
"Line.LN6018331-1"           1     2469.4     -142.9        0.3        1.5     2.3     1.7     2470.2     -139.6     2108.4     -119.2
"Line.LN6018331-1"           2    -2469.0      143.8       -0.3       -1.5    -2.3    -1.6
"Line.LN6291244-1"           1     2460.0     -146.3        0.3        1.6     2.4     1.6     2460.8     -143.0     2100.4     -122.0
"Line.LN6291244-1"           2    -2459.2      147.9       -0.3       -1.5    -2.3    -1.5
"Line.LN5473436-1"           1     2459.2     -147.9        0.3        1.5     2.3     1.5     2460.0     -144.8     2099.7     -123.6
"Line.LN5473436-1"           2    -2459.2      147.9       -0.3       -1.5    -2.3    -1.5
"Line.LN5473436-2"           1     2453.0     -149.5        0.2        1.5     2.3     1.5     2453.8     -146.4     2092.2     -124.9
"Line.LN5473436-2"           2    -2452.7      150.3       -0.2       -1.5    -2.3    -1.4
"Line.LN5896825-1"           1     2442.4     -153.0        0.2        1.5     2.2     1.3     2443.1     -150.0     2079.3     -127.7
"Line.LN5896825-1"           2    -2442.1      153.6       -0.2       -1.5    -2.2    -1.3
"Line.LN6351510-1"           1     2442.1     -153.6        0.2        1.5     2.2     1.3     2442.7     -150.8     2079.0     -128.3
"Line.LN6351510-1"           2    -2442.0      153.7       -0.2       -1.5    -2.2    -1.3
"Line.LN5654471-1"           1     2432.1     -156.4        0.3        1.5     2.2     1.4     2432.8     -153.4     2070.6     -130.6
"Line.LN5654471-1"           2    -2431.7      157.4       -0.3       -1.4    -2.2    -1.3
"Line.LN5745348-1"           1     2407.9     -163.8        0.4        1.4     2.1     1.5     2408.6     -160.7     2050.0     -136.8
"Line.LN5745348-1"           2    -2407.5      164.7       -0.4       -1.4    -2.1    -1.4
"Line.LN5504876-1"           1       91.9       24.4       -0.1       -0.3    -0.3    -0.2       90.3       23.6        0.0        0.0
"Line.LN5504876-1"           2      -91.9      -24.4        0.1        0.3     0.3     0.2
"Line.LN5928744-1"           1       91.9       24.4       -0.1       -0.3    -0.3    -0.2       90.3       23.6        0.0        0.0
"Line.LN5928744-1"           2      -91.9      -24.5        0.1        0.3     0.3     0.2
"Line.LN5927423-1"           1       86.5       23.0       -0.1       -0.2    -0.3    -0.2       84.9       22.2        0.0        0.0
"Line.LN5927423-1"           2      -86.4      -23.1        0.1        0.2     0.3     0.2
"Line.LN5684911-1"           1       35.7        9.4       -0.2        0.0     0.1    -0.3       34.9        8.9        0.0        0.0
"Line.LN5684911-1"           2      -35.7       -9.5        0.2       -0.0    -0.1     0.3
"Line.LN5957494-1"           1       35.7        9.5       -0.2        0.0     0.1    -0.3       34.9        9.0        0.0        0.0
"Line.LN5957494-1"           2      -35.6       -9.6        0.2       -0.0    -0.1     0.3
"Line.LN6200532-1"           1     2315.6     -189.1        0.5        1.7     2.4     1.7     2316.7     -185.6     1971.8     -158.0
"Line.LN6200532-1"           2    -2315.1      190.2       -0.5       -1.7    -2.4    -1.6
"Line.LN5594239-1"           1     2301.5     -193.8        0.4        1.7     2.5     1.6     2302.7     -190.4     1959.8     -162.1
"Line.LN5594239-1"           2    -2301.0      194.8       -0.4       -1.7    -2.5    -1.5
"Line.LN6078767-1"           1     2290.8     -197.5        0.4        1.7     2.4     1.4     2291.8     -194.3     1947.0     -165.1
"Line.LN6078767-1"           2    -2290.6      197.8       -0.4       -1.7    -2.4    -1.4
"Line.LN5503576-1"           1     2290.6     -197.8        0.4        1.7     2.4     1.4     2291.7     -194.6     1946.9     -165.4
"Line.LN5503576-1"           2    -2290.3      198.5       -0.4       -1.7    -2.4    -1.3
"Line.LN6200527-1"           1     2280.0     -201.2        0.4        1.6     2.3     1.2     2281.0     -198.2     1934.2     -168.1
"Line.LN6200527-1"           2    -2279.6      202.1       -0.4       -1.6    -2.3    -1.1
"Line.LN6170293-1"           1     2274.2     -203.6        0.3        1.6     2.3     1.1     2275.1     -200.7     1929.2     -170.2
"Line.LN6170293-1"           2    -2273.9      204.1       -0.3       -1.6    -2.3    -1.1
"Line.LN5745347-1"           1     2254.9     -209.2        0.3        1.7     2.5     1.1     2255.9     -206.3     1912.9     -174.9
"Line.LN5745347-1"           2    -2254.7      209.7       -0.3       -1.7    -2.4    -1.0
"Line.LN5957493-1"           1     2239.3     -213.7        0.2        1.6     2.4     0.9     2240.1     -210.9     1894.0     -178.3
"Line.LN5957493-1"           2    -2238.8      214.6       -0.2       -1.6    -2.3    -0.8
"Line.LN6078768-1"           1     2166.5     -234.3        0.6        1.6     2.2     1.3     2167.6     -231.2     1832.7     -195.4
"Line.LN6078768-1"           2    -2166.3      234.7       -0.6       -1.6    -2.2    -1.3
"Line.LN6351511-1"           1     2156.3     -237.4        0.7        1.6     2.2     1.3     2157.5     -234.3     1824.1     -198.1
"Line.LN6351511-1"           2    -2156.0      238.0       -0.7       -1.6    -2.1    -1.3
"Line.LN5958866-1"           1     2145.8     -240.7        0.6        1.5     2.1     1.2     2146.8     -237.8     1811.5     -200.6
"Line.LN5958866-1"           2    -2145.0      242.2       -0.6       -1.5    -2.0    -1.0
"Line.A8645_48332_SW"        1     2145.0     -242.2        0.6        1.5     2.0     1.0        0.0        0.0        0.0        0.0
"Line.A8645_48332_SW"        2    -2145.0      242.3       -0.6       -1.5    -2.0    -1.0
"Line.LN6201850-1"           1     2145.0     -242.3        0.6        1.5     2.0     1.0     2146.0     -239.5     1810.8     -202.1
"Line.LN6201850-1"           2    -2144.6      243.1       -0.6       -1.5    -2.0    -1.0
"Line.LN6291252-1"           1     2130.1     -247.0        0.6        1.5     2.1     0.9     2131.1     -244.4     1798.3     -206.2
"Line.LN6291252-1"           2    -2129.8      247.7       -0.6       -1.5    -2.1    -0.8
"Line.LN6291252-2"           1     2129.8     -247.7        0.6        1.5     2.1     0.8     2130.8     -245.2     1798.0     -206.9
"Line.LN6291252-2"           2    -2129.6      248.1       -0.6       -1.5    -2.0    -0.8
"Line.LN6018341-1"           1     2124.2     -249.6        0.6        1.5     2.1     0.8     2125.2     -247.1     1793.2     -208.5
"Line.LN6018341-1"           2    -2123.8      250.5       -0.6       -1.5    -2.0    -0.7
"Line.LN6291253-1"           1     1707.2     -360.2       -0.6       -0.1     0.0    -0.7     1704.7     -360.6     1322.9     -279.8
"Line.LN6291253-1"           2    -1707.0      360.7        0.6        0.1    -0.0     0.7
"Line.LN6170302-1"           1     1700.8     -362.3       -0.6       -0.1    -0.0    -0.7     1698.3     -362.7     1317.9     -281.4
"Line.LN6170302-1"           2    -1700.6      362.8        0.6        0.1     0.0     0.7
"Line.LN6321427-1"           1     1691.5     -365.2       -0.6       -0.1     0.0    -0.8     1689.1     -365.6     1310.7     -283.7
"Line.LN6321427-1"           2    -1691.3      365.8        0.6        0.1    -0.0     0.8
"Line.LN5531195-1"           1     1644.6     -378.4       -0.4       -0.1     0.0    -0.5     1642.3     -378.5     1247.7     -287.6
"Line.LN5531195-1"           2    -1644.5      378.6        0.4        0.1    -0.0     0.5
"Line.LN6106511-1"           1     1644.5     -378.6       -0.4       -0.1     0.0    -0.5     1642.1     -378.7     1247.6     -287.7
"Line.LN6106511-1"           2    -1642.3      379.3        0.4        0.1    -0.0     0.5
"Line.LN6351524-1"           1     1638.2     -380.3       -0.4       -0.1    -0.0    -0.5     1635.8     -380.5     1242.8     -289.1
"Line.LN6351524-1"           2    -1636.1      381.0        0.4        0.1     0.0     0.5
"Line.LN6109158-1"           1     1810.6     -380.6       -0.4       -0.1    -0.0    -0.5     1808.2     -380.8     1411.5     -297.3
"Line.LN6109158-1"           2    -1807.9      381.4        0.5        0.1     0.0     0.5
"Line.LN5473449-1"           1     1797.7     -384.1       -0.5       -0.2    -0.1    -0.6     1795.1     -384.4     1401.3     -300.1
"Line.LN5473449-1"           2    -1794.4      385.1        0.5        0.2     0.1     0.6
"Line.LN6079946-1"           1     1788.4     -386.7       -0.5       -0.2    -0.1    -0.5     1785.9     -387.0     1390.7     -301.4
"Line.LN6079946-1"           2    -1784.6      387.9        0.5        0.2     0.1     0.5
"Line.LN6256144-4"           1     1778.5     -389.5       -0.5       -0.2    -0.1    -0.6     1775.9     -389.8     1382.9     -303.6
"Line.LN6256144-4"           2    -1776.2      390.2        0.5        0.2     0.1     0.6
"Line.LN6256144-3"           1     1776.2     -390.2       -0.5       -0.2    -0.1    -0.6     1773.6     -390.5     1381.1     -304.1
"Line.LN6256144-3"           2    -1773.5      391.0        0.5        0.2     0.2     0.6
"Line.LN6256144-1"           1     1767.4     -392.6       -0.5       -0.2    -0.2    -0.6     1764.7     -393.0     1374.2     -306.1
"Line.LN6256144-1"           2    -1766.1      393.0        0.5        0.2     0.2     0.6
"Line.LN5527400-1"           1     1760.2     -394.6       -0.5       -0.2    -0.2    -0.6     1757.5     -395.0     1365.3     -306.8
"Line.LN5527400-1"           2    -1760.0      394.7        0.5        0.2     0.2     0.6
"Line.LN5955063-1"           1     1760.0     -394.7       -0.5       -0.2    -0.2    -0.6     1757.4     -395.0     1365.1     -306.9
"Line.LN5955063-1"           2    -1757.5      395.4        0.5        0.2     0.2     0.6
"Line.LN6440069-1"           1     1757.5     -395.4       -0.5       -0.2    -0.2    -0.6     1754.8     -395.8     1363.2     -307.5
"Line.LN6440069-1"           2    -1755.4      396.1        0.5        0.2     0.2     0.6
"Line.LN5623403-1"           1     1751.3     -397.2       -0.5       -0.3    -0.2    -0.6     1748.6     -397.6     1358.3     -308.8
"Line.LN5623403-1"           2    -1748.6      398.0        0.6        0.3     0.2     0.6
"Line.LN5502533-1"           1     1688.4     -436.4       -0.6       -0.1    -0.0    -0.7     1685.8     -436.7     1304.5     -337.9
"Line.LN5502533-1"           2    -1684.3      437.6        0.6        0.1     0.0     0.7
"Line.LN6259995-1"           1     1671.7     -441.0       -0.7        0.0     0.0    -0.8     1669.1     -441.3     1291.6     -341.4
"Line.LN6259995-1"           2    -1668.4      442.0        0.7        0.0    -0.0     0.8
"Line.LN6350541-1"           1     1659.4     -444.4       -0.7        0.1     0.1    -0.8     1656.9     -444.7     1282.1     -344.1
"Line.LN6350541-1"           2    -1656.2      445.3        0.7       -0.0    -0.1     0.9
"Line.LN5502531-1"           1     1646.3     -448.1       -0.7        0.0     0.1    -0.8     1643.8     -448.3     1266.4     -345.4
"Line.LN5502531-1"           2    -1645.2      448.4        0.7       -0.0    -0.1     0.8
"Line.LN6290212-1"           1     1645.2     -448.4       -0.7        0.0     0.1    -0.8     1642.7     -448.6     1265.6     -345.6
"Line.LN6290212-1"           2    -1642.4      449.2        0.7       -0.0    -0.1     0.8
"Line.LN6138608-3"           1     1624.3     -454.1       -0.7        0.1     0.2    -0.9     1621.8     -454.3     1249.5     -350.0
"Line.LN6138608-3"           2    -1621.8      454.8        0.7       -0.1    -0.2     0.9
"Line.LN4586093_SW"          1     1621.8     -454.8       -0.7        0.1     0.2    -0.9        0.0        0.0        0.0        0.0
"Line.LN4586093_SW"          2    -1621.8      454.8        0.7       -0.1    -0.2     0.9
"Line.LN6138608-2"           1     1621.8     -454.8       -0.7        0.1     0.2    -0.9     1619.4     -455.0     1247.6     -350.6
"Line.LN6138608-2"           2    -1621.7      454.9        0.7       -0.1    -0.2     0.9
"Line.LN5502532-1"           1     1621.1     -455.3       -0.1       -0.7     0.1     0.3     1619.1     -455.2     1226.5     -344.8
"Line.LN5502532-1"           2    -1621.0      455.4        0.1        0.7    -0.1    -0.3
"Line.LN5472360-1"           1     1621.0     -455.4       -0.1       -0.7     0.1     0.3     1619.0     -455.2     1226.4     -344.8
"Line.LN5472360-1"           2    -1619.5      455.8        0.1        0.7    -0.1    -0.3
"Line.LN5683823-1"           1     1543.4     -476.0       -0.1       -0.1    -0.1     0.1     1541.1     -475.4     1125.0     -347.0
"Line.LN5683823-1"           2    -1541.5      476.6        0.1        0.1     0.1    -0.1
"Line.LN5835143-1"           1     1530.0     -479.6       -0.1       -0.2    -0.0     0.1     1527.7     -479.0     1111.1     -348.4
"Line.LN5835143-1"           2    -1526.2      480.7        0.1        0.2     0.1    -0.1
"Line.LN5593234-1"           1     1519.9     -482.4       -0.1       -0.2    -0.0     0.1     1517.7     -481.8     1103.0     -350.1
"Line.LN5593234-1"           2    -1517.8      483.0        0.1        0.2     0.0    -0.1
"Line.LN5863823-1"           1     1155.6     -577.4        2.2       -1.4     0.7     0.1     1156.9     -577.9      840.8     -420.0
"Line.LN5863823-1"           2    -1155.0      577.6       -2.1        1.4    -0.7    -0.1
"Line.LN5501088-1"           1     1155.0     -577.6        2.1       -1.4     0.7     0.1     1156.2     -578.1      840.3     -420.1
"Line.LN5501088-1"           2    -1154.0      577.9       -2.0        1.4    -0.6     0.0
"Line.LN6108136-1"           1     1147.7     -579.5        2.0       -1.4     0.6    -0.0     1148.8     -580.2      834.9     -421.6
"Line.LN6108136-1"           2    -1147.4      579.6       -2.0        1.4    -0.5     0.1
"Line.LN6017299-1"           1     1147.4     -579.6        2.0       -1.4     0.5    -0.1     1148.3     -580.3      834.5     -421.8
"Line.LN6017299-1"           2    -1146.4      579.9       -1.9        1.5    -0.4     0.2
"Line.LN6413567-2"           1     1142.3     -580.9        1.9       -1.5     0.4    -0.2     1143.1     -581.8      830.7     -422.8
"Line.LN6413567-2"           2    -1141.6      581.1       -1.9        1.5    -0.4     0.2
"Line.LN6413567-3"           1     1141.6     -581.1        1.9       -1.5     0.4    -0.2     1142.3     -582.1      830.1     -423.0
"Line.LN6413567-3"           2    -1141.4      581.2       -1.9        1.5    -0.3     0.3
"Line.X8223_48332_SW"        1     1141.4     -581.2        1.9       -1.5     0.3    -0.3        0.0        0.0        0.0        0.0
"Line.X8223_48332_SW"        2    -1141.4      581.2       -1.9        1.5    -0.3     0.3
"Line.LN5806919-1"           1     1141.4     -581.2        1.9       -1.5     0.3    -0.3     1142.0     -582.2      829.9     -423.1
"Line.LN5806919-1"           2    -1140.0      581.6       -1.7        1.6    -0.2     0.4
"Line.LN5804791-1"           1     1006.3     -617.3        1.0       -1.9     0.3    -0.3     1006.2     -618.6      731.2     -449.6
"Line.LN5804791-1"           2    -1005.4      617.6       -0.9        1.9    -0.2     0.4
"Line.LN5593222-1"           1     1000.0     -619.0        0.8       -1.9     0.2    -0.4      999.7     -620.4      726.5     -450.9
"Line.LN5593222-1"           2     -998.7      619.4       -0.7        2.0    -0.1     0.5
"Line.LN5956463-1"           1      983.1     -623.4        0.8       -2.0     0.0    -0.5      982.6     -625.1      714.1     -454.3
"Line.LN5956463-1"           2     -981.9      623.8       -0.7        2.1     0.1     0.7
"Line.LN6320329-1"           1      973.0     -626.2        0.6       -2.1    -0.1    -0.7      972.2     -628.0      706.5     -456.4
"Line.LN6320329-1"           2     -972.2      626.4       -0.5        2.1     0.2     0.7
"Line.LN5774453-1"           1      957.7     -630.1        0.6       -2.2    -0.2    -0.8      956.8     -632.2      695.4     -459.4
"Line.LN5774453-1"           2     -956.2      630.5       -0.4        2.2     0.4     1.0
"Line.LN5532743-1"           1      944.6     -633.6        0.4       -2.3    -0.4    -1.0      943.4     -635.9      685.6     -462.2
"Line.LN5532743-1"           2     -943.4      633.9       -0.3        2.3     0.6     1.1
"Line.LN6047561-1"           1      933.9     -636.5        0.3       -2.3    -0.5    -1.1      932.4     -639.0      675.1     -462.7
"Line.LN6047561-1"           2     -931.8      637.1       -0.0        2.4     0.8     1.4
"Line.LN6229807-1"           1      922.8     -639.5       -0.0       -2.4    -0.8    -1.4      920.7     -642.3      666.6     -465.1
"Line.LN6229807-1"           2     -921.4      639.9        0.2        2.4     1.0     1.6
"Line.LN5593239-1"           1      916.1     -641.3       -0.2       -2.4    -1.0    -1.6      913.6     -644.4      661.5     -466.6
"Line.LN5593239-1"           2     -915.6      641.4        0.3        2.4     1.0     1.6
"Line.LN5804802-1"           1      903.3     -644.6       -0.2       -2.5    -1.1    -1.7      900.7     -647.9      652.2     -469.1
"Line.LN5804802-1"           2     -902.5      644.8        0.4        2.5     1.2     1.8
"Line.LN6138614-1"           1      646.0     -715.5        0.4       -1.3    -1.0    -0.5      644.2     -715.8      377.5     -419.5
"Line.LN6138614-1"           2     -645.4      715.6       -0.4        1.3     1.0     0.6
"Line.LN6199530-1"           1      645.4      234.6        0.4       -1.3    -1.0    -0.5      643.3      232.2      325.5      117.5
"Line.LN6199530-1"           2     -645.3     -234.5       -0.4        1.3     1.0     0.6
"Line.LN6199527-1"           1      636.3      232.1        0.3       -1.3    -1.0    -0.6      634.1      229.7      320.9      116.3
"Line.LN6199527-1"           2     -636.0     -232.1       -0.3        1.3     1.0     0.6
"Line.LN5683831-1"           1      627.0      229.7        0.2       -1.2    -0.9    -0.6      624.7      227.2      316.2      115.0
"Line.LN5683831-1"           2     -626.7     -229.6       -0.2        1.3     1.0     0.7
"Line.LN5472369-1"           1      616.4      227.0        0.2       -1.3    -1.0    -0.7      614.1      224.4      310.8      113.6
"Line.LN5472369-1"           2     -616.3     -227.0       -0.2        1.3     1.0     0.7
"Line.LN5865248-1"           1      595.7      221.6        0.3       -1.5    -1.2    -0.8      593.3      218.9      300.3      110.8
"Line.LN5865248-1"           2     -595.5     -221.6       -0.2        1.5     1.2     0.8
"Line.LN6047584-1"           1      577.5      216.9        0.1       -1.4    -1.1    -0.9      575.1      214.0      291.1      108.3
"Line.LN6047584-1"           2     -577.4     -216.8       -0.1        1.4     1.1     0.9
"Line.LN6047583-1"           1      572.0      215.4        0.1       -1.4    -1.1    -0.9      569.5      212.5      288.2      107.6
"Line.LN6047583-1"           2     -571.7     -215.4       -0.0        1.4     1.1     1.0
"Line.LN5472370-1"           1      550.2      209.7       -0.1       -1.4    -1.0    -1.0      547.7      206.7      277.2      104.6
"Line.LN5472370-1"           2     -549.9     -209.7        0.2        1.4     1.0     1.1
"Line.LN5926308-3"           1      531.3      204.5       -0.1       -1.3    -1.0    -1.0      528.9      201.7      253.3       96.6
"Line.LN5926308-3"           2     -531.2     -204.5        0.1        1.3     1.0     1.0
"Line.LN4625696_SW"          1      531.2      204.5       -0.1       -1.3    -1.0    -1.0        0.0        0.0        0.0        0.0
"Line.LN4625696_SW"          2     -531.2     -204.5        0.1        1.3     1.0     1.0
"Line.LN5926308-2"           1      531.2      204.5       -0.1       -1.3    -1.0    -1.0      528.7      201.7      253.3       96.6
"Line.LN5926308-2"           2     -531.1     -204.5        0.1        1.3     1.0     1.0
"Line.LN6350546-1"           1      691.3      201.1       -0.2       -1.3    -0.9    -1.1      688.7      198.3      389.4      112.1
"Line.LN6350546-1"           2     -691.3     -201.1        0.2        1.3     0.9     1.1
"Line.LN5986935-1"           1      691.3      201.1       -0.2       -1.3    -0.9    -1.1      688.6      198.3      389.4      112.1
"Line.LN5986935-1"           2     -690.8     -201.0        0.3        1.3     1.0     1.1
"Line.LN5744341-1"           1      680.9      198.3       -0.2       -1.3    -1.0    -1.0      678.2      195.5      374.2      107.9
"Line.LN5744341-1"           2     -680.7     -198.2        0.2        1.3     1.0     1.1
"Line.LN5714080-1"           1      678.7      197.7       -0.2       -1.3    -1.0    -1.0      676.0      194.9      371.1      107.0
"Line.LN5714080-1"           2     -678.5     -197.6        0.2        1.3     1.0     1.1
"Line.LN5593253-1"           1      664.1      193.8       -0.3       -1.2    -0.9    -1.1      661.3      191.0      363.0      104.9
"Line.LN5593253-1"           2     -664.0     -193.8        0.3        1.2     0.9     1.1
"Line.LN6199560-1"           1      681.4      191.1       -0.3       -1.2    -0.9    -1.1      678.7      188.3      377.5      104.7
"Line.LN6199560-1"           2     -681.0     -191.0        0.4        1.2     1.0     1.2
"Line.LN6320367-3"           1      613.4      173.2       -0.8       -1.0    -0.5    -1.5      610.7      170.2      339.7       94.7
"Line.LN6320367-3"           2     -613.3     -173.1        0.8        1.0     0.5     1.5
"Line.LN6320367-2"           1      613.3      173.1       -0.8       -1.0    -0.5    -1.5      610.7      170.2      339.7       94.7
"Line.LN6320367-2"           2     -613.2     -173.1        0.8        1.0     0.5     1.5
"Line.LN6049825-1"           1      613.2      173.1       -0.8       -1.0    -0.5    -1.5      610.6      170.2      339.6       94.7
"Line.LN6049825-1"           2     -613.2     -173.1        0.8        1.0     0.5     1.5
"Line.L5523_48332_SW"        1      613.2      173.1       -0.8       -1.0    -0.5    -1.5        0.0        0.0        0.0        0.0
"Line.L5523_48332_SW"        2     -613.2     -173.1        0.8        1.0     0.5     1.5
"Line.LN6171508-1"           1      613.2      173.1       -0.8       -1.0    -0.5    -1.5      610.5      170.2      339.6       94.7
"Line.LN6171508-1"           2     -613.0     -173.1        0.8        1.1     0.5     1.5
"Line.LN6350577-1"           1      602.7      170.4       -0.8       -1.1    -0.6    -1.6      599.9      167.3      333.7       93.1
"Line.LN6350577-1"           2     -602.2     -170.4        0.9        1.1     0.6     1.6
"Line.LN6380847-1"           1      592.3      167.6       -0.8       -1.1    -0.6    -1.5      589.5      164.6      319.4       89.2
"Line.LN6380847-1"           2     -591.9     -167.5        0.9        1.1     0.7     1.6
"Line.LN5865272-1"           1      540.6      147.1       -0.8       -1.5    -1.2    -1.8      537.4      143.4      290.5       77.6
"Line.LN5865272-1"           2     -540.4     -147.0        0.9        1.5     1.2     1.8
"Line.LN5774497-1"           1      535.0      145.6       -0.9       -1.5    -1.2    -1.8      531.7      141.9      287.5       76.7
"Line.LN5774497-1"           2     -534.8     -145.6        0.9        1.5     1.2     1.9
"Line.LN5804836-1"           1      534.8      145.6       -0.9       -1.5    -1.2    -1.9      531.4      141.9      287.3       76.7
"Line.LN5804836-1"           2     -534.6     -145.6        1.0        1.5     1.2     1.9
"Line.LN6379462-1"           1      524.4      142.9       -1.0       -1.6    -1.3    -1.9      520.9      139.0      281.6       75.2
"Line.LN6379462-1"           2     -524.2     -142.9        1.0        1.6     1.4     2.0
"Line.LN6379462-2"           1      524.2      142.9       -1.0       -1.6    -1.4    -2.0      520.7      139.0      281.5       75.2
"Line.LN6379462-2"           2     -524.0     -142.9        1.0        1.6     1.4     2.0
"Line.LN6379462-3"           1      515.0      140.5       -1.1       -1.6    -1.3    -2.1      511.4      136.5      276.5       73.8
"Line.LN6379462-3"           2     -514.9     -140.5        1.1        1.6     1.4     2.1
"Line.LN6047605-1"           1      514.9      140.5       -1.1       -1.6    -1.4    -2.1      511.2      136.5      276.4       73.8
"Line.LN6047605-1"           2     -514.8     -140.5        1.1        1.6     1.4     2.1
"Line.LN6229835-1"           1      499.5      136.5       -1.1       -1.7    -1.5    -2.2      495.6      132.3      268.0       71.5
"Line.LN6229835-1"           2     -499.2     -136.5        1.2        1.8     1.6     2.2
"Line.LN6320368-1"           1      489.2      133.7       -1.1       -1.7    -1.6    -2.1      485.4      129.6      254.9       68.1
"Line.LN6320368-1"           2     -489.1     -133.7        1.1        1.7     1.6     2.2
"Line.LN5956503-1"           1      483.1      132.0       -1.1       -1.7    -1.6    -2.1      479.2      127.9      247.0       65.9
"Line.LN5956503-1"           2     -482.9     -132.0        1.1        1.7     1.7     2.1
"Line.LN5532791-1"           1      454.4      124.7       -1.2       -2.0    -2.0    -2.3      450.1      120.2      232.0       61.9
"Line.LN5532791-1"           2     -454.3     -124.7        1.2        2.0     2.0     2.3
"Line.LN5895818-1"           1      454.3      124.7       -1.2       -2.0    -2.0    -2.3      450.0      120.2      231.9       61.9
"Line.LN5895818-1"           2     -454.2     -124.7        1.2        2.0     2.1     2.3
"Line.LN5865271-1"           1      454.2      124.7       -1.2       -2.0    -2.1    -2.3      449.9      120.1      231.9       61.9
"Line.LN5865271-1"           2     -454.1     -124.7        1.3        2.0     2.1     2.4
"Line.LN5774496-1"           1      444.1      121.9       -1.2       -2.0    -2.1    -2.2      439.7      117.4      219.0       58.5
"Line.LN5774496-1"           2     -443.9     -121.9        1.2        2.0     2.2     2.3
"Line.LN5623408-1"           1      434.9      119.5       -1.3       -1.9    -2.1    -2.4      430.5      114.9      214.4       57.2
"Line.LN5623408-1"           2     -434.8     -119.5        1.3        1.9     2.1     2.4
"Line.LN5683830-1"           1      300.1       84.1       -2.4       -1.2    -0.7    -3.6      296.3       79.2      147.6       39.4
"Line.LN5683830-1"           2     -300.1      -84.1        2.4        1.2     0.8     3.7
"Line.LN6017302-1"           1      294.1       82.5       -2.4       -1.1    -0.8    -3.6      290.2       77.5      141.3       37.8
"Line.LN6017302-1"           2     -294.0      -82.5        2.4        1.2     0.8     3.6
"Line.LN6198013-2"           1      285.0       80.1       -2.5       -1.1    -0.7    -3.7      281.1       75.1      136.9       36.6
"Line.LN6198013-2"           2     -285.0      -80.1        2.5        1.1     0.8     3.7
"Line.LN6198013-1"           1      278.9       78.6       -2.5       -1.2    -0.9    -3.8      274.8       73.4      133.8       35.8
"Line.LN6198013-1"           2     -278.8      -78.6        2.6        1.2     0.9     3.8
"Line.LN5835149-1"           1      266.8       75.2       -2.5       -1.1    -0.9    -3.7      262.8       70.2      121.8       32.6
"Line.LN5835149-1"           2     -266.8      -75.2        2.5        1.1     0.9     3.7
"Line.LN5895787-1"           1      261.4       73.8       -2.5       -1.1    -0.8    -3.7      257.3       68.8      119.3       31.9
"Line.LN5895787-1"           2     -261.4      -73.8        2.5        1.1     0.9     3.8
"Line.LN6262266-12"          1        0.1        7.4       -0.0        0.0     0.0    -0.0        0.1        5.3        0.0        0.0
"Line.LN6262266-12"          2       -0.1       -7.4        0.0       -0.0    -0.0     0.0
"Line.LN6262266-13"          1        0.1        7.4       -0.0        0.0     0.0    -0.0        0.1        5.3        0.0        0.0
"Line.LN6262266-13"          2       -0.1       -7.4        0.0       -0.0    -0.0     0.0
"Line.LN5686080-1"           1        0.1        7.4       -0.0        0.0     0.0    -0.0        0.1        5.3        0.0        0.0
"Line.LN5686080-1"           2       -0.1       -7.4        0.0       -0.0    -0.0     0.0
"Line.LN293471_SW"           1        0.1        7.4       -0.0        0.0     0.0    -0.0        0.0        0.0        0.0        0.0
"Line.LN293471_SW"           2       -0.1       -7.4        0.0       -0.0    -0.0     0.0
"Line.293471"                1        0.1        7.4       -0.0        0.0     0.0    -0.0        0.1        5.3        0.0        0.0
"Line.293471"                2       -0.1       -7.4        0.0       -0.0    -0.0     0.0
"Line.LN5604685-1"           1       20.4       27.8       -0.0        0.0     0.0    -0.0       19.4       26.4        0.0        0.0
"Line.LN5604685-1"           2      -20.4      -27.9        0.0       -0.0    -0.0     0.0
"Line.LN6028890-1"           1       19.9       12.7       -0.0        0.0     0.0    -0.0       18.6       11.8        0.0        0.0
"Line.LN6028890-1"           2      -19.9      -12.7        0.0       -0.0    -0.0     0.0
"Line.LN5604685-2"           1        0.5       15.2       -0.0        0.0     0.0    -0.0        0.5       13.2        0.0        0.0
"Line.LN5604685-2"           2       -0.5      -15.2        0.0       -0.0    -0.0     0.0
"Line.LN6381853-1"           1     6374.0     1221.3       -1.6       -4.8    -2.4    -7.0     6368.1     1209.1     5991.0     1137.5
"Line.LN6381853-1"           2    -6371.0    -1214.2        1.7        4.9     2.6     7.4
"Line.LN6413954-1"           1     6360.8     1211.6       -1.7       -5.0    -2.6    -7.5     6354.6     1198.8     5978.3     1127.8
"Line.LN6413954-1"           2    -6358.4    -1205.9        1.8        5.1     2.8     7.8
"Line.LN5558790-1"           1     6358.4     1205.9       -1.8       -5.1    -2.8    -7.8     6352.0     1192.6     5975.8     1122.0
"Line.LN5558790-1"           2    -6357.9    -1204.6        1.8        5.2     2.8     7.9
"Line.LN5861005-2"           1     6357.9     1204.6       -1.8       -5.2    -2.8    -7.9     6351.4     1191.2     5975.3     1120.7
"Line.LN5861005-2"           2    -6357.6    -1204.1        1.8        5.2     2.8     7.9
"Line.LN3693186_SW"          1     6357.6     1204.1       -1.8       -5.2    -2.8    -7.9        0.0        0.0        0.0        0.0
"Line.LN3693186_SW"          2    -6357.4    -1203.8        1.8        5.2     2.8     7.9
"Line.LN5861005-3"           1     6357.4     1203.8       -1.8       -5.2    -2.8    -7.9     6350.9     1190.3     5974.8     1119.9
"Line.LN5861005-3"           2    -6356.8    -1202.5        1.8        5.2     2.8     8.0
"Line.LN6321420-1"           1     6341.4     1198.5       -1.9       -5.3    -2.9    -8.2     6334.7     1184.8     5959.6     1114.6
"Line.LN6321420-1"           2    -6339.2    -1193.1        2.0        5.4     3.1     8.5
"Line.LN6139646-1"           1     6320.9     1188.1       -2.0       -5.3    -2.8    -8.5     6314.1     1174.0     5937.4     1104.0
"Line.LN6139646-1"           2    -6318.9    -1183.4        2.1        5.4     3.0     8.7
"Line.LN5836178-1"           1     6306.7     1180.3       -2.2       -5.5    -3.0    -8.9     6299.6     1165.7     5923.7     1096.1
"Line.LN5836178-1"           2    -6304.1    -1174.1        2.3        5.6     3.2     9.2
"Line.LN5533786-1"           1     6290.4     1170.4       -2.3       -5.5    -3.0    -9.2     6283.2     1155.3     5906.1     1085.9
"Line.LN5533786-1"           2    -6288.0    -1164.7        2.4        5.7     3.1     9.5
"Line.LN6381844-1"           1     6288.0     1164.7       -2.4       -5.7    -3.1    -9.5     6280.6     1149.1     5903.7     1080.1
"Line.LN6381844-1"           2    -6285.3    -1158.1        2.5        5.8     3.3     9.9
"Line.LN6048626-1"           1     6285.3     1158.1       -2.5       -5.8    -3.3    -9.9     6277.6     1142.0     5900.9     1073.5
"Line.LN6048626-1"           2    -6283.3    -1153.1        2.6        5.9     3.4    10.2
"Line.LN5715002-1"           1     6283.3     1153.1       -2.6       -5.9    -3.4   -10.2     6275.4     1136.6     5898.7     1068.4
"Line.LN5715002-1"           2    -6282.1    -1150.4        2.6        6.0     3.5    10.4
"Line.LN6139641-1"           1     6278.0     1149.3       -2.6       -6.0    -3.5   -10.4     6270.0     1132.6     5893.7     1064.6
"Line.LN6139641-1"           2    -6276.6    -1145.8        2.7        6.1     3.6    10.6
"Line.LN5987954-1"           1     6250.0     1139.2       -2.8       -6.3    -3.8   -11.0     6241.5     1121.6     5866.9     1054.3
"Line.LN5987954-1"           2    -6247.9    -1134.2        2.9        6.4     3.9    11.3
"Line.LN6318761-1"           1     6247.9     1134.2       -2.9       -6.4    -3.9   -11.3     6239.2     1116.1     5864.8     1049.2
"Line.LN6318761-1"           2    -6238.0    -1110.1        3.3        7.0     4.6    12.8
"Line.LN6348948-1"           1     6224.2     1106.4       -3.3       -6.9    -4.3   -12.8     6214.7     1086.4     5839.5     1020.8
"Line.LN6348948-1"           2    -6217.7    -1090.5        3.6        7.3     4.8    13.8
"Line.LN5561442-1"           1     6217.7     1090.5       -3.6       -7.3    -4.8   -13.8     6207.4     1069.1     5832.7     1004.6
"Line.LN5561442-1"           2    -6215.4    -1085.2        3.7        7.4     4.9    14.2
"Line.LN5561442-2"           1     6205.3     1082.6       -3.7       -7.5    -5.0   -14.3     6194.6     1060.5     5820.7      996.5
"Line.LN5561442-2"           2    -6203.2    -1077.7        3.8        7.6     5.1    14.6
"Line.LN6137009-2"           1     6185.0     1073.3       -3.9       -7.7    -5.3   -15.0     6173.8     1050.3     5801.1      986.9
"Line.LN6137009-2"           2    -6184.5    -1072.1        4.0        7.7     5.3    15.0
"Line.LN6137009-1"           1     6174.3     1069.6       -4.0       -7.8    -5.4   -15.2     6163.0     1046.2     5790.9      983.1
"Line.LN6137009-1"           2    -6172.4    -1065.0        4.1        7.9     5.6    15.5
"Line.LN6286109-1"           1     6172.4     1065.0       -4.1       -7.9    -5.6   -15.5     6160.9     1041.2     5789.0      978.4
"Line.LN6286109-1"           2    -6172.0    -1063.9        4.1        8.0     5.6    15.6
"Line.LN6381820-1"           1     6139.5     1055.9       -4.3       -8.2    -5.9   -16.2     6127.4     1031.2     5757.4      969.0
"Line.LN6381820-1"           2    -6134.9    -1044.9        4.5        8.5     6.3    17.0
"Line.LN6198039-1"           1     6124.8     1042.4       -4.6       -8.6    -6.4   -17.2     6111.9     1016.3     5742.9      954.9
"Line.LN6198039-1"           2    -6122.3    -1036.5        4.7        8.8     6.6    17.7
"Line.A8869_48332_SW"        1     6122.3     1036.5       -4.7       -8.8    -6.6   -17.7        0.0        0.0        0.0        0.0
"Line.A8869_48332_SW"        2    -6122.1    -1036.2        4.7        8.8     6.6    17.7
"Line.LN6318767-1"           1     6122.1     1036.2       -4.7       -8.8    -6.6   -17.7     6108.9     1009.5     5740.1      948.5
"Line.LN6318767-1"           2    -6120.0    -1031.3        4.8        8.9     6.7    18.1
"Line.LN5927296-1"           1     6095.3     1024.3       -4.6       -9.0    -7.0   -17.6     6081.9      997.4     5714.7      937.2
"Line.LN5927296-1"           2    -6094.4    -1022.0        4.6        9.0     7.1    17.8
"Line.LN6260929-1"           1     6079.1     1018.2       -4.7       -9.1    -7.3   -18.1     6065.3      990.7     5699.1      930.9
"Line.LN6260929-1"           2    -6078.1    -1015.7        4.8        9.2     7.4    18.3
"Line.LN5624288-1"           1     6042.5     1007.1       -5.0       -9.5    -7.8   -19.0     6027.9      978.3     5664.0      919.3
"Line.LN5624288-1"           2    -6041.1    -1003.6        5.1        9.6     7.9    19.3
"Line.LN5745257-1"           1     6000.6      992.1       -4.7       -9.7    -8.4   -18.5     5985.7      963.6     5624.4      905.5
"Line.LN5745257-1"           2    -5994.5     -977.3        5.0       10.2     8.9    19.7
"Line.LN5621864-1"           1       40.0       25.5        0.1        0.0     0.1     0.2       38.7       24.8        0.0        0.0
"Line.LN5621864-1"           2      -40.0      -25.5       -0.1       -0.0    -0.1    -0.2
"Line.LN6228311-1"           1       40.0       25.5        0.1        0.0     0.1     0.2       38.7       24.8        0.0        0.0
"Line.LN6228311-1"           2      -40.0      -25.5       -0.1       -0.0    -0.1    -0.2
"Line.LN6506310-2"           1       36.4       24.5        0.0        0.1     0.2     0.2       35.3       23.9        0.0        0.0
"Line.LN6506310-2"           2      -36.4      -24.6       -0.0       -0.1    -0.2    -0.2
"Line.LN6506311-4"           1        6.1        1.5        0.0        0.1     0.1     0.1        5.5        1.5        0.0        0.0
"Line.LN6506311-4"           2       -6.1       -1.5       -0.0       -0.1    -0.1    -0.1
"Line.LN6413700-1"           1     5954.5      951.8       -5.0      -10.2    -9.0   -19.9     5938.6      921.4     5578.2      865.5
"Line.LN6413700-1"           2    -5952.1     -946.1        5.1       10.4     9.2    20.3
"Line.LN5807070-1"           1     5952.1      946.1       -5.1      -10.4    -9.2   -20.3     5936.0      915.1     5575.6      859.5
"Line.LN5807070-1"           2    -5952.0     -945.7        5.2       10.4     9.2    20.4
"Line.LN5654433-1"           1     5952.0      945.7       -5.2      -10.4    -9.2   -20.4     5935.8      914.6     5575.5      859.1
"Line.LN5654433-1"           2    -5949.7     -940.3        5.3       10.6     9.4    20.8
"Line.LN6170256-1"           1     6110.5      937.0       -5.3      -10.5    -9.1   -20.9     6094.3      905.4     5731.1      851.4
"Line.LN6170256-1"           2    -6106.6     -927.7        5.5       10.8     9.4    21.6
"Line.LN5775438-1"           1     5786.8      772.1       -3.7       -9.8    -9.1   -17.0     5772.2      745.1     5409.2      698.3
"Line.LN5775438-1"           2    -5783.3     -763.7        3.8       10.1     9.4    17.5
"Line.LN5535139-1"           1     5783.3      763.7       -3.8      -10.1    -9.4   -17.5     5768.4      735.9     5405.6      689.7
"Line.LN5535139-1"           2    -5783.2     -763.4        3.8       10.1     9.4    17.5
"Line.L5437_48332_SW"        1     5783.2      763.4       -3.8      -10.1    -9.4   -17.5        0.0        0.0        0.0        0.0
"Line.L5437_48332_SW"        2    -5783.0     -763.2        3.8       10.1     9.4    17.5
"Line.LN5576174-3"           1     5783.0      763.2       -3.8      -10.1    -9.4   -17.5     5768.0      735.4     5405.3      689.2
"Line.LN5576174-3"           2    -5782.8     -762.7        3.8       10.1     9.4    17.5
"Line.LN5576174-4"           1     5782.8      762.7       -3.8      -10.1    -9.4   -17.5     5767.8      734.9     5405.1      688.7
"Line.LN5576174-4"           2    -5781.4     -759.3        3.9       10.2     9.5    17.7
"Line.LN5576174-2"           1     5772.2      756.8       -3.9      -10.1    -9.2   -17.7     5757.2      728.8     5393.7      682.7
"Line.LN5576174-2"           2    -5770.9     -753.8        4.0       10.1     9.3    17.9
"Line.LN5684838-1"           1     5752.3      748.7       -4.1       -9.9    -8.7   -17.9     5737.7      720.7     5372.3      674.8
"Line.LN5684838-1"           2    -5750.2     -743.6        4.1       10.1     8.9    18.2
"Line.LN5591710-2"           1     5744.3      741.9       -4.1      -10.1    -9.0   -18.0     5729.5      713.6     5364.6      668.2
"Line.LN5591710-2"           2    -5742.9     -738.6        4.1       10.2     9.0    18.2
"Line.LN5591710-3"           1     5733.7      736.0       -4.2      -10.0    -8.8   -18.2     5718.9      707.6     5353.2      662.3
"Line.LN5591710-3"           2    -5732.4     -733.0        4.2       10.1     8.9    18.4
"Line.LN5591731-3"           1     5732.4      733.0       -4.2      -10.1    -8.9   -18.4     5717.5      704.3     5351.9      659.2
"Line.LN5591731-3"           2    -5732.4     -732.9        4.2       10.1     8.9    18.4
"Line.LN5591731-1"           1     5723.1      730.3       -4.3      -10.0    -8.6   -18.4     5708.5      701.7     5341.9      656.7
"Line.LN5591731-1"           2    -5720.7     -724.5        4.3       10.2     8.7    18.7
"Line.LN5503480-1"           1     5702.2      719.4       -4.4       -9.9    -8.2   -18.7     5687.8      690.6     5319.4      645.9
"Line.LN5503480-1"           2    -5698.9     -711.4        4.6       10.1     8.4    19.1
"Line.LN5920279-5"           1     5688.8      709.0       -4.6      -10.2    -8.5   -19.4     5673.8      679.2     5306.3      635.2
"Line.LN5920279-5"           2    -5688.1     -707.3        4.7       10.3     8.5    19.5
"Line.LN5920279-4"           1     5688.1      707.3       -4.7      -10.3    -8.5   -19.5     5673.0      677.3     5305.6      633.4
"Line.LN5920279-4"           2    -5687.0     -704.6        4.7       10.3     8.6    19.7
"Line.LN5920279-2"           1     5687.0      704.6       -4.7      -10.3    -8.6   -19.7     5671.8      674.4     5304.4      630.7
"Line.LN5920279-2"           2    -5686.5     -703.6        4.7       10.4     8.6    19.7
"Line.LN5927298-1"           1     5668.1      698.5       -4.8      -10.1    -8.1   -19.7     5653.4      668.5     5284.1      624.8
"Line.LN5927298-1"           2    -5666.7     -695.2        4.9       10.2     8.1    19.9
"Line.LN5889821-1"           1     5662.7      694.2       -4.9      -10.3    -8.2   -20.0     5647.7      663.7     5278.8      620.4
"Line.LN5889821-1"           2    -5660.0     -687.7        5.0       10.4     8.4    20.4
"Line.LN6321372-3"           1     5660.0      687.7       -5.0      -10.4    -8.4   -20.4     5644.8      656.7     5276.0      613.8
"Line.LN6321372-3"           2    -5658.8     -684.9        5.1       10.5     8.4    20.5
"Line.LN6321372-2"           1     5658.8      684.9       -5.1      -10.5    -8.4   -20.5     5643.5      653.7     5274.8      611.0
"Line.LN6321372-2"           2    -5658.5     -684.0        5.1       10.5     8.4    20.6
"Line.LN5563901-2"           1     5654.5      683.1       -5.1      -10.5    -8.5   -20.7     5639.0      651.6     5270.6      609.1
"Line.LN5563901-2"           2    -5652.1     -677.4        5.2       10.7     8.7    21.0
"Line.LN5563901-3"           1     5652.1      677.4       -5.2      -10.7    -8.7   -21.0     5636.4      645.5     5268.2      603.3
"Line.LN5563901-3"           2    -5650.7     -673.9        5.3       10.8     8.7    21.2
"Line.LN5503544-1"           1     5650.7      673.9       -5.3      -10.8    -8.7   -21.2     5634.8      641.7     5266.7      599.8
"Line.LN5503544-1"           2    -5649.8     -672.0        5.3       10.8     8.8    21.4
"Line.LN5624342-1"           1     5542.4      642.6       -5.8       -9.3    -5.1   -21.1     5529.6      611.9     5149.8      569.9
"Line.LN5624342-1"           2    -5540.8     -638.6        5.9        9.4     5.2    21.3
"Line.LN5594212-1"           1     5531.5      636.0       -5.9       -9.3    -4.9   -21.3     5518.8      605.2     5139.7      563.6
"Line.LN5594212-1"           2    -5530.0     -632.5        6.0        9.4     5.0    21.5
"Line.LN5805728-1"           1     5515.2      628.2       -5.7       -9.4    -5.3   -21.1     5502.3      597.5     5122.1      556.2
"Line.LN5805728-1"           2    -5512.9     -622.5        5.8        9.5     5.4    21.4
"Line.LN5684836-1"           1     5503.1      619.6       -5.7       -9.5    -5.6   -21.1     5489.9      588.8     5110.5      548.1
"Line.LN5684836-1"           2    -5501.0     -614.7        5.7        9.6     5.7    21.4
"Line.LN5587291-1"           1     5491.0      612.4       -5.9       -9.8    -5.9   -21.7     5477.4      580.8     5098.8      540.6
"Line.LN5587291-1"           2    -5489.8     -609.5        5.9        9.8     5.9    21.8
"Line.LN5587291-3"           1     5463.4      592.8        9.6       -7.2     4.8    -8.8     5475.8      576.6     5076.0      534.5
"Line.LN5587291-3"           2    -5463.2     -592.3       -9.6        7.2    -4.8     8.8
"Line.2002200004641085_SW"   1     5463.2      592.3        9.6       -7.2     4.8    -8.8        0.0        0.0        0.0        0.0
"Line.2002200004641085_SW"   2    -5463.0     -592.1       -9.6        7.2    -4.8     8.8
"Line.LN5587291-4"           1     5463.0      592.1        9.6       -7.2     4.8    -8.8     5475.4      575.8     5075.6      533.8
"Line.LN5587291-4"           2    -5461.5     -588.4       -9.5        7.3    -4.8     9.0
"Line.LN5473349-1"           1     5382.8      570.3       10.5       -8.4     4.9   -10.4     5396.2      551.3     5002.2      511.1
"Line.LN5473349-1"           2    -5382.1     -568.7      -10.5        8.4    -4.9    10.5
"Line.LN5563853-1"           1     5357.7      561.5       10.6       -8.0     4.4   -10.3     5370.8      543.0     4973.7      502.9
"Line.LN5563853-1"           2    -5355.2     -555.7      -10.5        8.1    -4.3    10.7
"Line.LN6167731-2"           1     5355.2      555.7       10.5       -8.1     4.3   -10.7     5368.1      536.7     4971.2      497.0
"Line.LN6167731-2"           2    -5347.2     -536.5      -10.3        8.5    -3.9    11.7
"Line.LN6167731-1"           1     5341.8      535.0       10.2       -8.5     4.0   -11.7     5354.0      514.6     4958.1      476.6
"Line.LN6167731-1"           2    -5338.4     -526.9      -10.0        8.7    -3.8    12.1
"Line.LN6380805-1"           1     5317.6      522.2       10.3       -9.0     3.8   -12.5     5329.7      500.5     4935.6      463.5
"Line.LN6380805-1"           2    -5315.0     -515.9      -10.2        9.1    -3.6    12.9
"Line.LN6350529-1"           1     5315.0      515.9       10.2       -9.1     3.6   -12.9     5326.8      493.7     4933.0      457.2
"Line.LN6350529-1"           2    -5312.9     -510.9      -10.1        9.2    -3.5    13.2
"Line.LN6290198-1"           1     5293.1      505.4        9.7       -9.3     3.9   -13.0     5304.7      483.0     4912.5      447.3
"Line.LN6290198-1"           2    -5290.6     -499.6       -9.7        9.4    -3.8    13.3
"Line.LN5653452-1"           1     5290.6      499.6        9.7       -9.4     3.8   -13.3     5302.1      476.7     4910.0      441.4
"Line.LN5653452-1"           2    -5287.9     -493.0       -9.6        9.5    -3.6    13.7
"Line.LN6290199-1"           1     5287.9      493.0        9.6       -9.5     3.6   -13.7     5299.0      469.5     4907.3      434.8
"Line.LN6290199-1"           2    -5283.3     -482.0       -9.4        9.8    -3.3    14.4
"Line.LN5679696-1"           1     5283.3      482.0        9.4       -9.8     3.3   -14.4     5294.0      457.7     4902.6      423.8
"Line.LN5679696-1"           2    -5283.2     -481.7       -9.4        9.8    -3.3    14.4
"Line.LN5679695-1"           1     5283.2      481.7        9.4       -9.8     3.3   -14.4     5293.9      457.4     4902.5      423.6
"Line.LN5679695-1"           2    -5281.5     -477.8       -9.3        9.9    -3.2    14.6
"Line.LN5986921-1"           1     5263.5      472.9        9.0       -9.9     3.6   -14.4     5274.2      448.4     4884.2      415.3
"Line.LN5986921-1"           2    -5262.1     -469.5       -8.9       10.0    -3.6    14.6
"Line.LN6290200-1"           1     5262.1      469.5        8.9      -10.0     3.6   -14.6     5272.6      444.7     4882.8      411.8
"Line.LN6290200-1"           2    -5261.4     -468.0       -8.9       10.0    -3.5    14.7
"Line.LN6259984-1"           1     5256.0      466.5        8.8      -10.0     3.7   -14.7     5266.5      441.7     4877.2      409.0
"Line.LN6259984-1"           2    -5253.3     -460.0       -8.7       10.1    -3.5    15.0
"Line.LN5799408-1"           1     5232.5      455.4        8.9      -10.5     3.4   -15.6     5242.9      429.2     4855.3      397.4
"Line.LN5799408-1"           2    -5230.5     -450.4       -8.9       10.6    -3.3    15.9
...